@<TRIPOS>MOLECULE
LIG
   38    38     1     0     0
SMALL
bcc


@<TRIPOS>ATOM
      1 N          -0.1830    1.1590    0.0040 n         1 LIG     -0.460800
      2 C          -1.4000    2.8580   -1.3370 c3        1 LIG     -0.176100
      3 C1         -0.3940    2.4920   -0.2610 c         1 LIG      0.675100
      4 C2          0.7890    0.7910    1.0590 c3        1 LIG      0.138000
      5 C3          0.0980    0.1930    2.2850 c3        1 LIG     -0.110100
      6 C4          1.9150   -0.0580    0.4750 ca        1 LIG     -0.098300
      7 C5          2.7520    0.5240   -0.4850 ca        1 LIG     -0.111000
      8 C6          3.7990   -0.1900   -1.0510 ca        1 LIG     -0.132000
      9 C7          4.0350   -1.5090   -0.6680 ca        1 LIG     -0.126000
     10 C8          3.2160   -2.0980    0.2860 ca        1 LIG     -0.135000
     11 C9          2.1650   -1.3770    0.8530 ca        1 LIG     -0.130000
     12 C10        -0.8770    0.1020   -0.6980 c3        1 LIG      0.033000
     13 O           0.2250    3.3710    0.3220 o         1 LIG     -0.604100
     14 C11        -2.2030   -0.3180   -0.0240 c         1 LIG      0.625100
     15 C12        -3.9310   -2.0060    0.2800 c3        1 LIG      0.077300
     16 C13        -2.0490   -2.4820   -1.2500 c3        1 LIG      0.081300
     17 N1         -2.7260   -1.5290   -0.3850 n         1 LIG     -0.483800
     18 O1         -2.7660    0.4360    0.7530 o         1 LIG     -0.602100
     19 H          -1.0530    2.5400   -2.3150 hc        1 LIG      0.055700
     20 H1         -1.4950    3.9330   -1.3350 hc        1 LIG      0.077700
     21 H2         -2.3660    2.4080   -1.1440 hc        1 LIG      0.079700
     22 H3         -1.1010    0.3920   -1.7150 h1        1 LIG      0.069700
     23 H4         -0.2080   -0.7430   -0.7630 h1        1 LIG      0.081700
     24 H5          1.2200    1.7300    1.3600 h1        1 LIG      0.102700
     25 H6          2.5820    1.5450   -0.7770 ha        1 LIG      0.146000
     26 H7          4.4330    0.2810   -1.7820 ha        1 LIG      0.134000
     27 H8          4.8470   -2.0630   -1.1030 ha        1 LIG      0.132000
     28 H9          3.3920   -3.1130    0.5950 ha        1 LIG      0.130000
     29 H10         1.5550   -1.8540    1.5970 ha        1 LIG      0.130000
     30 H11        -0.3840   -0.7570    2.0790 hc        1 LIG      0.030700
     31 H12        -0.6620    0.8750    2.6390 hc        1 LIG      0.060700
     32 H13         0.8240    0.0340    3.0760 hc        1 LIG      0.048700
     33 H14        -4.6640   -2.3100   -0.4600 h1        1 LIG      0.031700
     34 H15        -1.3220   -3.0840   -0.7120 h1        1 LIG      0.027700
     35 H16        -4.3390   -1.2130    0.8820 h1        1 LIG      0.081700
     36 H17        -1.5540   -1.9920   -2.0760 h1        1 LIG      0.036700
     37 H18        -3.7060   -2.8580    0.9140 h1        1 LIG      0.027700
     38 H19        -2.7920   -3.1470   -1.6700 h1        1 LIG      0.052700
@<TRIPOS>BOND
     1    1    3 1   
     2    1    4 1   
     3    1   12 1   
     4    2    3 1   
     5    2   19 1   
     6    2   20 1   
     7    2   21 1   
     8    3   13 2   
     9    4    5 1   
    10    4    6 1   
    11    4   24 1   
    12    5   30 1   
    13    5   31 1   
    14    5   32 1   
    15    6    7 ar  
    16    6   11 ar  
    17    7    8 ar  
    18    7   25 1   
    19    8    9 ar  
    20    8   26 1   
    21    9   10 ar  
    22    9   27 1   
    23   10   11 ar  
    24   10   28 1   
    25   11   29 1   
    26   12   14 1   
    27   12   22 1   
    28   12   23 1   
    29   14   17 1   
    30   14   18 2   
    31   15   17 1   
    32   15   33 1   
    33   15   35 1   
    34   15   37 1   
    35   16   17 1   
    36   16   34 1   
    37   16   36 1   
    38   16   38 1   
@<TRIPOS>SUBSTRUCTURE
     1 LIG         1 TEMP              0 ****  ****    0 ROOT
