@<TRIPOS>MOLECULE
LIG
   28    28     1     0     0
SMALL
bcc


@<TRIPOS>ATOM
      1 N           1.3530   -0.1940   -0.2530 n         1 LIG     -0.476800
      2 O           3.1400    0.7980    0.7480 o         1 LIG     -0.616100
      3 C           3.5490   -1.3160   -0.2790 c3        1 LIG     -0.169100
      4 C1          2.6770   -0.1290    0.0950 c         1 LIG      0.662100
      5 C2          0.4320    0.7530    0.4120 c3        1 LIG      0.145000
      6 C3          0.6680    2.1840   -0.0760 c3        1 LIG     -0.104100
      7 C4         -1.0170    0.3180    0.2200 ca        1 LIG     -0.103300
      8 C5         -1.6060   -0.4910    1.1980 ca        1 LIG     -0.112000
      9 C6         -2.9240   -0.9110    1.0810 ca        1 LIG     -0.132000
     10 C7         -3.6870   -0.5240   -0.0180 ca        1 LIG     -0.126000
     11 C8         -3.1260    0.3060   -0.9790 ca        1 LIG     -0.135000
     12 C9         -1.8030    0.7290   -0.8560 ca        1 LIG     -0.124000
     13 C10         0.7700   -1.3330   -0.9500 c3        1 LIG      0.084300
     14 H           3.1390   -2.2380    0.1170 hc        1 LIG      0.062700
     15 H1          4.5270   -1.1460    0.1480 hc        1 LIG      0.075700
     16 H2          3.6520   -1.4240   -1.3530 hc        1 LIG      0.057700
     17 H3          1.5290   -1.8430   -1.5220 h1        1 LIG      0.024700
     18 H4          0.0190   -1.0010   -1.6480 h1        1 LIG      0.054700
     19 H5          0.3150   -2.0470   -0.2730 h1        1 LIG      0.034700
     20 H6          0.6490    0.7230    1.4730 h1        1 LIG      0.097700
     21 H7         -1.0260   -0.7950    2.0510 ha        1 LIG      0.146000
     22 H8         -3.3560   -1.5360    1.8420 ha        1 LIG      0.133000
     23 H9         -4.7070   -0.8510   -0.1110 ha        1 LIG      0.131000
     24 H10        -3.7100    0.6280   -1.8220 ha        1 LIG      0.130000
     25 H11        -1.3920    1.3710   -1.6130 ha        1 LIG      0.130000
     26 H12         0.5900    2.2450   -1.1570 hc        1 LIG      0.033700
     27 H13         1.6530    2.5160    0.2090 hc        1 LIG      0.045700
     28 H14        -0.0680    2.8530    0.3580 hc        1 LIG      0.049700
@<TRIPOS>BOND
     1    1    4 1   
     2    1    5 1   
     3    1   13 1   
     4    2    4 2   
     5    3    4 1   
     6    3   14 1   
     7    3   15 1   
     8    3   16 1   
     9    5    6 1   
    10    5    7 1   
    11    5   20 1   
    12    6   26 1   
    13    6   27 1   
    14    6   28 1   
    15    7    8 ar  
    16    7   12 ar  
    17    8    9 ar  
    18    8   21 1   
    19    9   10 ar  
    20    9   22 1   
    21   10   11 ar  
    22   10   23 1   
    23   11   12 ar  
    24   11   24 1   
    25   12   25 1   
    26   13   17 1   
    27   13   18 1   
    28   13   19 1   
@<TRIPOS>SUBSTRUCTURE
     1 LIG         1 TEMP              0 ****  ****    0 ROOT
